[TITLE]


[JUNCTIONS]
;ID		Elev		Demand		Pattern
ne1_1	107.352165	0				;
e1_1	104.992165	0				;
nv1_1	104.992165	0				;
ne1_2	107.57986	0				;
e1_2	104.959854	0				;
nv1_2	104.959854	0				;
ne1_3	107.73368	0				;
e1_3	104.94368	0				;
nv1_3	104.94368	0				;
ne1_4	107.81204	0				;
e1_4	104.94204	0				;
nv1_4	104.94204	0				;
ne1_5	107.815765	0				;
e1_5	104.94576	0				;
nv1_5	104.94576	0				;
ne1_6	107.789536	0				;
e1_6	104.969536	0				;
nv1_6	104.969536	0				;
ne1_7	107.74462	0				;
e1_7	104.974625	0				;
nv1_7	104.974625	0				;
ne1_8	107.68026	0				;
e1_8	104.99026	0				;
nv1_8	104.99026	0				;
ne1_9	107.59778	0				;
e1_9	105.00778	0				;
nv1_9	105.00778	0				;
ne1_10	107.49663	0				;
n_ob1_10	107.49663	0				;
n_of1_10	107.49663	0				;
e_ob1_10	105.00663	0				;
nvb1_10	105.00663	0				;
e_bf1_10	105.00663	0				;
nvf1_10	105.00663	0				;
ne1_11	107.37679	0				;
n_ob1_11	107.37679	0				;
n_of1_11	107.37679	0				;
e_ob1_11	105.0368	0				;
nvb1_11	105.0368	0				;
e_bf1_11	105.0368	0				;
nvf1_11	105.0368	0				;
t_1	103.73	0				;
ne2_12	107.282074	0				;
e2_12	105.072075	0				;
nv2_12	105.072075	0				;
ne2_13	107.36236	0				;
e2_13	105.00236	0				;
nv2_13	105.00236	0				;
ne2_14	107.444405	0				;
e2_14	104.95441	0				;
nv2_14	104.95441	0				;
ne2_15	107.507324	0				;
e2_15	104.88732	0				;
nv2_15	104.88732	0				;
ne2_16	107.55113	0				;
e2_16	104.83113	0				;
nv2_16	104.83113	0				;
ne2_17	107.57598	0				;
e2_17	104.75598	0				;
nv2_17	104.75598	0				;
ne2_18	107.581345	0				;
e2_18	104.71134	0				;
nv2_18	104.71134	0				;
ne2_19	107.567604	0				;
e2_19	104.647606	0				;
nv2_19	104.647606	0				;
ne2_20	107.53474	0				;
e2_20	104.58474	0				;
nv2_20	104.58474	0				;
ne2_21	107.48212	0				;
e2_21	104.53212	0				;
nv2_21	104.53212	0				;
ne2_22	107.41081	0				;
e2_22	104.490814	0				;
nv2_22	104.490814	0				;
ne2_23	107.32039	0				;
e2_23	104.450386	0				;
nv2_23	104.450386	0				;
ne2_24	107.21086	0				;
e2_24	104.39086	0				;
nv2_24	104.39086	0				;
ne2_25	107.08076	0				;
e2_25	104.360756	0				;
nv2_25	104.360756	0				;
ne2_26	106.93279	0				;
n_ob2_26	106.93279	0				;
n_of2_26	106.93279	0				;
e_ob2_26	104.31279	0				;
nvb2_26	104.31279	0				;
e_bf2_26	104.31279	0				;
nvf2_26	104.31279	0				;
ne2_27	106.7657	0				;
n_ob2_27	106.7657	0				;
n_of2_27	106.7657	0				;
e_ob2_27	104.2757	0				;
nvb2_27	104.2757	0				;
e_bf2_27	104.2757	0				;
nvf2_27	104.2757	0				;
t_2	102.915	0				;
ne3_28	106.56867	0				;
e3_28	104.35867	0				;
nv3_28	104.35867	0				;
ne3_29	106.64998	0				;
e3_29	104.28998	0				;
nv3_29	104.28998	0				;
ne3_30	106.73328	0				;
e3_30	104.24328	0				;
nv3_30	104.24328	0				;
ne3_31	106.797455	0				;
e3_31	104.17745	0				;
nv3_31	104.17745	0				;
ne3_32	106.84252	0				;
e3_32	104.12252	0				;
nv3_32	104.12252	0				;
ne3_33	106.86863	0				;
e3_33	104.04863	0				;
nv3_33	104.04863	0				;
ne3_34	106.87526	0				;
e3_34	104.00526	0				;
nv3_34	104.00526	0				;
ne3_35	106.86277	0				;
e3_35	103.94277	0				;
nv3_35	103.94277	0				;
ne3_36	106.83117	0				;
e3_36	103.88117	0				;
nv3_36	103.88117	0				;
ne3_37	106.77981	0				;
e3_37	103.82981	0				;
nv3_37	103.82981	0				;
ne3_38	106.70976	0				;
e3_38	103.789764	0				;
nv3_38	103.789764	0				;
ne3_39	106.620605	0				;
e3_39	103.7506	0				;
nv3_39	103.7506	0				;
ne3_40	106.51232	0				;
e3_40	103.69232	0				;
nv3_40	103.69232	0				;
ne3_41	106.3835	0				;
e3_41	103.6635	0				;
nv3_41	103.6635	0				;
ne3_42	106.23678	0				;
n_ob3_42	106.23678	0				;
n_of3_42	106.23678	0				;
e_ob3_42	103.616776	0				;
nvb3_42	103.616776	0				;
e_bf3_42	103.616776	0				;
nvf3_42	103.616776	0				;
ne3_43	106.070946	0				;
n_ob3_43	106.070946	0				;
n_of3_43	106.070946	0				;
e_ob3_43	103.58095	0				;
nvb3_43	103.58095	0				;
e_bf3_43	103.58095	0				;
nvf3_43	103.58095	0				;
t_3	102.386	0				;
ne4_44	106.06105	0				;
e4_44	103.85105	0				;
nv4_44	103.85105	0				;
ne4_45	106.155914	0				;
e4_45	103.79591	0				;
nv4_45	103.79591	0				;
ne4_46	106.25599	0				;
e4_46	103.76599	0				;
nv4_46	103.76599	0				;
ne4_47	106.33694	0				;
e4_47	103.716934	0				;
nv4_47	103.716934	0				;
ne4_48	106.398766	0				;
e4_48	103.678764	0				;
nv4_48	103.678764	0				;
ne4_49	106.441826	0				;
e4_49	103.621826	0				;
nv4_49	103.621826	0				;
ne4_50	106.46522	0				;
e4_50	103.595215	0				;
nv4_50	103.595215	0				;
ne4_51	106.4695	0				;
e4_51	103.5495	0				;
nv4_51	103.5495	0				;
ne4_52	106.454666	0				;
e4_52	103.50467	0				;
nv4_52	103.50467	0				;
ne4_53	106.42025	0				;
e4_53	103.47025	0				;
nv4_53	103.47025	0				;
ne4_54	106.36697	0				;
e4_54	103.44697	0				;
nv4_54	103.44697	0				;
ne4_55	106.29458	0				;
e4_55	103.424576	0				;
nv4_55	103.424576	0				;
ne4_56	106.20307	0				;
e4_56	103.38307	0				;
nv4_56	103.38307	0				;
ne4_57	106.09119	0				;
e4_57	103.371185	0				;
nv4_57	103.371185	0				;
ne4_58	105.96124	0				;
n_ob4_58	105.96124	0				;
n_of4_58	105.96124	0				;
e_ob4_58	103.34124	0				;
nvb4_58	103.34124	0				;
e_bf4_58	103.34124	0				;
nvf4_58	103.34124	0				;
ne4_59	105.81217	0				;
n_ob4_59	105.81217	0				;
n_of4_59	105.81217	0				;
e_ob4_59	103.322174	0				;
nvb4_59	103.322174	0				;
e_bf4_59	103.322174	0				;
nvf4_59	103.322174	0				;
t_4	102.144	0				;
ne5_60	105.86237	0				;
e5_60	103.652374	0				;
nv5_60	103.652374	0				;
ne5_61	105.98015	0				;
e5_61	103.64015	0				;
nv5_61	103.64015	0				;
ne5_62	106.10367	0				;
e5_62	103.64367	0				;
nv5_62	103.64367	0				;
ne5_63	106.20266	0				;
e5_63	103.63266	0				;
nv5_63	103.63266	0				;
ne5_64	106.27714	0				;
e5_64	103.60714	0				;
nv5_64	103.60714	0				;
ne5_65	106.327484	0				;
e5_65	103.60748	0				;
nv5_65	103.60748	0				;
ne5_66	106.35265	0				;
e5_66	103.58266	0				;
nv5_66	103.58266	0				;
ne5_67	106.3533	0				;
e5_67	103.5633	0				;
nv5_67	103.5633	0				;
ne5_68	106.32942	0				;
e5_68	103.53942	0				;
nv5_68	103.53942	0				;
ne5_69	106.280396	0				;
e5_69	103.5104	0				;
nv5_69	103.5104	0				;
ne5_70	106.207214	0				;
e5_70	103.48721	0				;
nv5_70	103.48721	0				;
ne5_71	106.10836	0				;
e5_71	103.46836	0				;
nv5_71	103.46836	0				;
ne5_72	105.985886	0				;
n_ob5_72	105.985886	0				;
n_of5_72	105.985886	0				;
e_ob5_72	103.415886	0				;
nvb5_72	103.415886	0				;
e_bf5_72	103.415886	0				;
nvf5_72	103.415886	0				;
ne5_73	105.83889	0				;
n_ob5_73	105.83889	0				;
n_of5_73	105.83889	0				;
e_ob5_73	103.37889	0				;
nvb5_73	103.37889	0				;
e_bf5_73	103.37889	0				;
nvf5_73	103.37889	0				;
t_5	102.168	0				;

[RESERVOIRS]
;ID		Head		Pattern
CT	132.50800323486328				;Central tower of the pivot

[TANKS]
;ID		Elevation		InitLevel		MinLevel		MaxLevel		Diameter		MinVol		VolCurve

[PIPES]
;ID		Node1		Node2		Length		Diameter		Roughness		MinorLoss		Status
pe1_1		ne1_1		nv1_1		2.3600006		50		0.0015		0		Open		;
pm1_0		CT		ne1_1		6.43		161.5		0.0015		0		Open		;
pe1_2		ne1_2		nv1_2		2.6200027		50		0.0015		0		Open		;
pm1_1		ne1_1		ne1_2		5.73		161.5		0.0015		0		Open		;
pe1_3		ne1_3		nv1_3		2.790001		50		0.0015		0		Open		;
pm1_2		ne1_2		ne1_3		5.76		161.5		0.0015		0		Open		;
pe1_4		ne1_4		nv1_4		2.8700027		50		0.0015		0		Open		;
pm1_3		ne1_3		ne1_4		5.73		161.5		0.0015		0		Open		;
pe1_5		ne1_5		nv1_5		2.8700027		50		0.0015		0		Open		;
pm1_4		ne1_4		ne1_5		5.76		161.5		0.0015		0		Open		;
pe1_6		ne1_6		nv1_6		2.8199997		50		0.0015		0		Open		;
pm1_5		ne1_5		ne1_6		2.87		161.5		0.0015		0		Open		;
pe1_7		ne1_7		nv1_7		2.7699966		50		0.0015		0		Open		;
pm1_6		ne1_6		ne1_7		2.87		161.5		0.0015		0		Open		;
pe1_8		ne1_8		nv1_8		2.6900024		50		0.0015		0		Open		;
pm1_7		ne1_7		ne1_8		2.9		161.5		0.0015		0		Open		;
pe1_9		ne1_9		nv1_9		2.5899963		50		0.0015		0		Open		;
pm1_8		ne1_8		ne1_9		2.87		161.5		0.0015		0		Open		;
peb1_10		n_ob1_10		nvb1_10		2.4899979		50		0.0015		0		Open		;
pef1_10		n_of1_10		nvf1_10		2.4899979		50		0.0015		0		Open		;
p_b1_10		ne1_10		n_ob1_10		1.5		50		0.0015		0		Open		;
p_f1_10		ne1_10		n_of1_10		1.5		50		0.0015		0		Closed		;
pm1_9		ne1_9		ne1_10		2.87		161.5		0.0015		0		Open		;
peb1_11		n_ob1_11		nvb1_11		2.3399963		50		0.0015		0		Open		;
pef1_11		n_of1_11		nvf1_11		2.3399963		50		0.0015		0		Open		;
p_b1_11		ne1_11		n_ob1_11		1.5		50		0.0015		0		Open		;
p_f1_11		ne1_11		n_of1_11		1.5		50		0.0015		0		Closed		;
pm1_10		ne1_10		ne1_11		2.87		161.5		0.0015		0		Open		;
pm1_11		ne1_11		t_1		3.03		161.5		0.0015		0		Open		;
pe2_12		ne2_12		nv2_12		2.209999		50		0.0015		0		Open		;
pm2_0		t_1		ne2_12		1.34		161.5		0.0015		0		Open		;
pe2_13		ne2_13		nv2_13		2.3600006		50		0.0015		0		Open		;
pm2_1		ne2_12		ne2_13		2.32		161.5		0.0015		0		Open		;
pe2_14		ne2_14		nv2_14		2.4899979		50		0.0015		0		Open		;
pm2_2		ne2_13		ne2_14		2.87		161.5		0.0015		0		Open		;
pe2_15		ne2_15		nv2_15		2.6200027		50		0.0015		0		Open		;
pm2_3		ne2_14		ne2_15		2.87		161.5		0.0015		0		Open		;
pe2_16		ne2_16		nv2_16		2.7200012		50		0.0015		0		Open		;
pm2_4		ne2_15		ne2_16		2.87		161.5		0.0015		0		Open		;
pe2_17		ne2_17		nv2_17		2.8199997		50		0.0015		0		Open		;
pm2_5		ne2_16		ne2_17		2.9		161.5		0.0015		0		Open		;
pe2_18		ne2_18		nv2_18		2.8700027		50		0.0015		0		Open		;
pm2_6		ne2_17		ne2_18		2.87		161.5		0.0015		0		Open		;
pe2_19		ne2_19		nv2_19		2.9199982		50		0.0015		0		Open		;
pm2_7		ne2_18		ne2_19		2.87		161.5		0.0015		0		Open		;
pe2_20		ne2_20		nv2_20		2.949997		50		0.0015		0		Open		;
pm2_8		ne2_19		ne2_20		2.87		161.5		0.0015		0		Open		;
pe2_21		ne2_21		nv2_21		2.949997		50		0.0015		0		Open		;
pm2_9		ne2_20		ne2_21		2.9		161.5		0.0015		0		Open		;
pe2_22		ne2_22		nv2_22		2.9199982		50		0.0015		0		Open		;
pm2_10		ne2_21		ne2_22		2.87		161.5		0.0015		0		Open		;
pe2_23		ne2_23		nv2_23		2.8700027		50		0.0015		0		Open		;
pm2_11		ne2_22		ne2_23		2.87		161.5		0.0015		0		Open		;
pe2_24		ne2_24		nv2_24		2.8199997		50		0.0015		0		Open		;
pm2_12		ne2_23		ne2_24		2.87		161.5		0.0015		0		Open		;
pe2_25		ne2_25		nv2_25		2.7200012		50		0.0015		0		Open		;
pm2_13		ne2_24		ne2_25		2.9		161.5		0.0015		0		Open		;
peb2_26		n_ob2_26		nvb2_26		2.6200027		50		0.0015		0		Open		;
pef2_26		n_of2_26		nvf2_26		2.6200027		50		0.0015		0		Open		;
p_b2_26		ne2_26		n_ob2_26		1.5		50		0.0015		0		Open		;
p_f2_26		ne2_26		n_of2_26		1.5		50		0.0015		0		Closed		;
pm2_14		ne2_25		ne2_26		2.87		161.5		0.0015		0		Open		;
peb2_27		n_ob2_27		nvb2_27		2.4899979		50		0.0015		0		Open		;
pef2_27		n_of2_27		nvf2_27		2.4899979		50		0.0015		0		Open		;
p_b2_27		ne2_27		n_ob2_27		1.5		50		0.0015		0		Open		;
p_f2_27		ne2_27		n_of2_27		1.5		50		0.0015		0		Closed		;
pm2_15		ne2_26		ne2_27		2.87		161.5		0.0015		0		Open		;
pm2_16		ne2_27		t_2		5.19		161.5		0.0015		0		Open		;
pe3_28		ne3_28		nv3_28		2.209999		50		0.0015		0		Open		;
pm3_0		t_2		ne3_28		3.66		161.5		0.0015		0		Open		;
pe3_29		ne3_29		nv3_29		2.3600006		50		0.0015		0		Open		;
pm3_1		ne3_28		ne3_29		2.32		161.5		0.0015		0		Open		;
pe3_30		ne3_30		nv3_30		2.4899979		50		0.0015		0		Open		;
pm3_2		ne3_29		ne3_30		2.87		161.5		0.0015		0		Open		;
pe3_31		ne3_31		nv3_31		2.6200027		50		0.0015		0		Open		;
pm3_3		ne3_30		ne3_31		2.87		161.5		0.0015		0		Open		;
pe3_32		ne3_32		nv3_32		2.7200012		50		0.0015		0		Open		;
pm3_4		ne3_31		ne3_32		2.87		161.5		0.0015		0		Open		;
pe3_33		ne3_33		nv3_33		2.8199997		50		0.0015		0		Open		;
pm3_5		ne3_32		ne3_33		2.9		161.5		0.0015		0		Open		;
pe3_34		ne3_34		nv3_34		2.8700027		50		0.0015		0		Open		;
pm3_6		ne3_33		ne3_34		2.87		161.5		0.0015		0		Open		;
pe3_35		ne3_35		nv3_35		2.9199982		50		0.0015		0		Open		;
pm3_7		ne3_34		ne3_35		2.87		161.5		0.0015		0		Open		;
pe3_36		ne3_36		nv3_36		2.949997		50		0.0015		0		Open		;
pm3_8		ne3_35		ne3_36		2.87		161.5		0.0015		0		Open		;
pe3_37		ne3_37		nv3_37		2.949997		50		0.0015		0		Open		;
pm3_9		ne3_36		ne3_37		2.9		161.5		0.0015		0		Open		;
pe3_38		ne3_38		nv3_38		2.9199982		50		0.0015		0		Open		;
pm3_10		ne3_37		ne3_38		2.87		161.5		0.0015		0		Open		;
pe3_39		ne3_39		nv3_39		2.8700027		50		0.0015		0		Open		;
pm3_11		ne3_38		ne3_39		2.87		161.5		0.0015		0		Open		;
pe3_40		ne3_40		nv3_40		2.8199997		50		0.0015		0		Open		;
pm3_12		ne3_39		ne3_40		2.87		161.5		0.0015		0		Open		;
pe3_41		ne3_41		nv3_41		2.7200012		50		0.0015		0		Open		;
pm3_13		ne3_40		ne3_41		2.9		161.5		0.0015		0		Open		;
peb3_42		n_ob3_42		nvb3_42		2.6200027		50		0.0015		0		Open		;
pef3_42		n_of3_42		nvf3_42		2.6200027		50		0.0015		0		Open		;
p_b3_42		ne3_42		n_ob3_42		1.5		50		0.0015		0		Open		;
p_f3_42		ne3_42		n_of3_42		1.5		50		0.0015		0		Closed		;
pm3_14		ne3_41		ne3_42		2.87		161.5		0.0015		0		Open		;
peb3_43		n_ob3_43		nvb3_43		2.4899979		50		0.0015		0		Open		;
pef3_43		n_of3_43		nvf3_43		2.4899979		50		0.0015		0		Open		;
p_b3_43		ne3_43		n_ob3_43		1.5		50		0.0015		0		Open		;
p_f3_43		ne3_43		n_of3_43		1.5		50		0.0015		0		Closed		;
pm3_15		ne3_42		ne3_43		2.87		161.5		0.0015		0		Open		;
pm3_16		ne3_43		t_3		2.87		161.5		0.0015		0		Open		;
pe4_44		ne4_44		nv4_44		2.209999		50		0.0015		0		Open		;
pm4_0		t_3		ne4_44		3.66		161.5		0.0015		0		Open		;
pe4_45		ne4_45		nv4_45		2.3600006		50		0.0015		0		Open		;
pm4_1		ne4_44		ne4_45		2.32		161.5		0.0015		0		Open		;
pe4_46		ne4_46		nv4_46		2.4899979		50		0.0015		0		Open		;
pm4_2		ne4_45		ne4_46		2.87		161.5		0.0015		0		Open		;
pe4_47		ne4_47		nv4_47		2.6200027		50		0.0015		0		Open		;
pm4_3		ne4_46		ne4_47		2.87		161.5		0.0015		0		Open		;
pe4_48		ne4_48		nv4_48		2.7200012		50		0.0015		0		Open		;
pm4_4		ne4_47		ne4_48		2.87		161.5		0.0015		0		Open		;
pe4_49		ne4_49		nv4_49		2.8199997		50		0.0015		0		Open		;
pm4_5		ne4_48		ne4_49		2.9		161.5		0.0015		0		Open		;
pe4_50		ne4_50		nv4_50		2.8700027		50		0.0015		0		Open		;
pm4_6		ne4_49		ne4_50		2.87		161.5		0.0015		0		Open		;
pe4_51		ne4_51		nv4_51		2.9199982		50		0.0015		0		Open		;
pm4_7		ne4_50		ne4_51		2.87		161.5		0.0015		0		Open		;
pe4_52		ne4_52		nv4_52		2.949997		50		0.0015		0		Open		;
pm4_8		ne4_51		ne4_52		2.87		161.5		0.0015		0		Open		;
pe4_53		ne4_53		nv4_53		2.949997		50		0.0015		0		Open		;
pm4_9		ne4_52		ne4_53		2.9		161.5		0.0015		0		Open		;
pe4_54		ne4_54		nv4_54		2.9199982		50		0.0015		0		Open		;
pm4_10		ne4_53		ne4_54		2.87		161.5		0.0015		0		Open		;
pe4_55		ne4_55		nv4_55		2.8700027		50		0.0015		0		Open		;
pm4_11		ne4_54		ne4_55		2.87		161.5		0.0015		0		Open		;
pe4_56		ne4_56		nv4_56		2.8199997		50		0.0015		0		Open		;
pm4_12		ne4_55		ne4_56		2.87		161.5		0.0015		0		Open		;
pe4_57		ne4_57		nv4_57		2.7200012		50		0.0015		0		Open		;
pm4_13		ne4_56		ne4_57		2.9		161.5		0.0015		0		Open		;
peb4_58		n_ob4_58		nvb4_58		2.6200027		50		0.0015		0		Open		;
pef4_58		n_of4_58		nvf4_58		2.6200027		50		0.0015		0		Open		;
p_b4_58		ne4_58		n_ob4_58		1.5		50		0.0015		0		Open		;
p_f4_58		ne4_58		n_of4_58		1.5		50		0.0015		0		Closed		;
pm4_14		ne4_57		ne4_58		2.87		161.5		0.0015		0		Open		;
peb4_59		n_ob4_59		nvb4_59		2.4899979		50		0.0015		0		Open		;
pef4_59		n_of4_59		nvf4_59		2.4899979		50		0.0015		0		Open		;
p_b4_59		ne4_59		n_ob4_59		1.5		50		0.0015		0		Open		;
p_f4_59		ne4_59		n_of4_59		1.5		50		0.0015		0		Closed		;
pm4_15		ne4_58		ne4_59		2.87		161.5		0.0015		0		Open		;
pm4_16		ne4_59		t_4		2.87		161.5		0.0015		0		Open		;
pe5_60		ne5_60		nv5_60		2.209999		50		0.0015		0		Open		;
pm5_0		t_4		ne5_60		3.66		161.5		0.0015		0		Open		;
pe5_61		ne5_61		nv5_61		2.3399963		50		0.0015		0		Open		;
pm5_1		ne5_60		ne5_61		2.32		161.5		0.0015		0		Open		;
pe5_62		ne5_62		nv5_62		2.459999		50		0.0015		0		Open		;
pm5_2		ne5_61		ne5_62		2.87		161.5		0.0015		0		Open		;
pe5_63		ne5_63		nv5_63		2.5699997		50		0.0015		0		Open		;
pm5_3		ne5_62		ne5_63		2.87		161.5		0.0015		0		Open		;
pe5_64		ne5_64		nv5_64		2.6699982		50		0.0015		0		Open		;
pm5_4		ne5_63		ne5_64		2.87		161.5		0.0015		0		Open		;
pe5_65		ne5_65		nv5_65		2.7200012		50		0.0015		0		Open		;
pm5_5		ne5_64		ne5_65		2.9		161.5		0.0015		0		Open		;
pe5_66		ne5_66		nv5_66		2.7699966		50		0.0015		0		Open		;
pm5_6		ne5_65		ne5_66		2.87		161.5		0.0015		0		Open		;
pe5_67		ne5_67		nv5_67		2.790001		50		0.0015		0		Open		;
pm5_7		ne5_66		ne5_67		2.87		161.5		0.0015		0		Open		;
pe5_68		ne5_68		nv5_68		2.790001		50		0.0015		0		Open		;
pm5_8		ne5_67		ne5_68		2.87		161.5		0.0015		0		Open		;
pe5_69		ne5_69		nv5_69		2.7699966		50		0.0015		0		Open		;
pm5_9		ne5_68		ne5_69		2.9		161.5		0.0015		0		Open		;
pe5_70		ne5_70		nv5_70		2.7200012		50		0.0015		0		Open		;
pm5_10		ne5_69		ne5_70		2.87		161.5		0.0015		0		Open		;
pe5_71		ne5_71		nv5_71		2.6399994		50		0.0015		0		Open		;
pm5_11		ne5_70		ne5_71		2.9		161.5		0.0015		0		Open		;
peb5_72		n_ob5_72		nvb5_72		2.5699997		50		0.0015		0		Open		;
pef5_72		n_of5_72		nvf5_72		2.5699997		50		0.0015		0		Open		;
p_b5_72		ne5_72		n_ob5_72		1.5		50		0.0015		0		Open		;
p_f5_72		ne5_72		n_of5_72		1.5		50		0.0015		0		Closed		;
pm5_12		ne5_71		ne5_72		2.87		161.5		0.0015		0		Open		;
peb5_73		n_ob5_73		nvb5_73		2.459999		50		0.0015		0		Open		;
pef5_73		n_of5_73		nvf5_73		2.459999		50		0.0015		0		Open		;
p_b5_73		ne5_73		n_ob5_73		1.5		50		0.0015		0		Open		;
p_f5_73		ne5_73		n_of5_73		1.5		50		0.0015		0		Closed		;
pm5_13		ne5_72		ne5_73		2.87		161.5		0.0015		0		Open		;
pm5_14		ne5_73		t_5		2.86		161.5		0.0015		0		Open		;

[PUMPS]
;ID		Node1		Node2		Parameters

[VALVES]
;ID		Node1		Node2		Diameter		Type		Setting		MinorLoss
v1_1	nv1_1	e1_1	50	PRV	0.7	0.0		;
v1_2	nv1_2	e1_2	50	PRV	0.7	0.0		;
v1_3	nv1_3	e1_3	50	PRV	0.7	0.0		;
v1_4	nv1_4	e1_4	50	PRV	0.7	0.0		;
v1_5	nv1_5	e1_5	50	PRV	0.7	0.0		;
v1_6	nv1_6	e1_6	50	PRV	0.7	0.0		;
v1_7	nv1_7	e1_7	50	PRV	0.7	0.0		;
v1_8	nv1_8	e1_8	50	PRV	0.7	0.0		;
v1_9	nv1_9	e1_9	50	PRV	0.7	0.0		;
vb1_10	nvb1_10	e_ob1_10	50	PRV	0.7	0.0		;
vf1_10	nvf1_10	e_bf1_10	50	PRV	0.7	0.0		;
vb1_11	nvb1_11	e_ob1_11	50	PRV	0.7	0.0		;
vf1_11	nvf1_11	e_bf1_11	50	PRV	0.7	0.0		;
v2_12	nv2_12	e2_12	50	PRV	0.7	0.0		;
v2_13	nv2_13	e2_13	50	PRV	0.7	0.0		;
v2_14	nv2_14	e2_14	50	PRV	0.7	0.0		;
v2_15	nv2_15	e2_15	50	PRV	0.7	0.0		;
v2_16	nv2_16	e2_16	50	PRV	0.7	0.0		;
v2_17	nv2_17	e2_17	50	PRV	0.7	0.0		;
v2_18	nv2_18	e2_18	50	PRV	0.7	0.0		;
v2_19	nv2_19	e2_19	50	PRV	0.7	0.0		;
v2_20	nv2_20	e2_20	50	PRV	0.7	0.0		;
v2_21	nv2_21	e2_21	50	PRV	0.7	0.0		;
v2_22	nv2_22	e2_22	50	PRV	0.7	0.0		;
v2_23	nv2_23	e2_23	50	PRV	0.7	0.0		;
v2_24	nv2_24	e2_24	50	PRV	0.7	0.0		;
v2_25	nv2_25	e2_25	50	PRV	0.7	0.0		;
vb2_26	nvb2_26	e_ob2_26	50	PRV	0.7	0.0		;
vf2_26	nvf2_26	e_bf2_26	50	PRV	0.7	0.0		;
vb2_27	nvb2_27	e_ob2_27	50	PRV	0.7	0.0		;
vf2_27	nvf2_27	e_bf2_27	50	PRV	0.7	0.0		;
v3_28	nv3_28	e3_28	50	PRV	0.7	0.0		;
v3_29	nv3_29	e3_29	50	PRV	0.7	0.0		;
v3_30	nv3_30	e3_30	50	PRV	0.7	0.0		;
v3_31	nv3_31	e3_31	50	PRV	0.7	0.0		;
v3_32	nv3_32	e3_32	50	PRV	0.7	0.0		;
v3_33	nv3_33	e3_33	50	PRV	0.7	0.0		;
v3_34	nv3_34	e3_34	50	PRV	0.7	0.0		;
v3_35	nv3_35	e3_35	50	PRV	0.7	0.0		;
v3_36	nv3_36	e3_36	50	PRV	0.7	0.0		;
v3_37	nv3_37	e3_37	50	PRV	0.7	0.0		;
v3_38	nv3_38	e3_38	50	PRV	0.7	0.0		;
v3_39	nv3_39	e3_39	50	PRV	0.7	0.0		;
v3_40	nv3_40	e3_40	50	PRV	0.7	0.0		;
v3_41	nv3_41	e3_41	50	PRV	0.7	0.0		;
vb3_42	nvb3_42	e_ob3_42	50	PRV	0.7	0.0		;
vf3_42	nvf3_42	e_bf3_42	50	PRV	0.7	0.0		;
vb3_43	nvb3_43	e_ob3_43	50	PRV	0.7	0.0		;
vf3_43	nvf3_43	e_bf3_43	50	PRV	0.7	0.0		;
v4_44	nv4_44	e4_44	50	PRV	0.7	0.0		;
v4_45	nv4_45	e4_45	50	PRV	0.7	0.0		;
v4_46	nv4_46	e4_46	50	PRV	0.7	0.0		;
v4_47	nv4_47	e4_47	50	PRV	0.7	0.0		;
v4_48	nv4_48	e4_48	50	PRV	0.7	0.0		;
v4_49	nv4_49	e4_49	50	PRV	0.7	0.0		;
v4_50	nv4_50	e4_50	50	PRV	0.7	0.0		;
v4_51	nv4_51	e4_51	50	PRV	0.7	0.0		;
v4_52	nv4_52	e4_52	50	PRV	0.7	0.0		;
v4_53	nv4_53	e4_53	50	PRV	0.7	0.0		;
v4_54	nv4_54	e4_54	50	PRV	0.7	0.0		;
v4_55	nv4_55	e4_55	50	PRV	0.7	0.0		;
v4_56	nv4_56	e4_56	50	PRV	0.7	0.0		;
v4_57	nv4_57	e4_57	50	PRV	0.7	0.0		;
vb4_58	nvb4_58	e_ob4_58	50	PRV	0.7	0.0		;
vf4_58	nvf4_58	e_bf4_58	50	PRV	0.7	0.0		;
vb4_59	nvb4_59	e_ob4_59	50	PRV	0.7	0.0		;
vf4_59	nvf4_59	e_bf4_59	50	PRV	0.7	0.0		;
v5_60	nv5_60	e5_60	50	PRV	0.7	0.0		;
v5_61	nv5_61	e5_61	50	PRV	0.7	0.0		;
v5_62	nv5_62	e5_62	50	PRV	0.7	0.0		;
v5_63	nv5_63	e5_63	50	PRV	0.7	0.0		;
v5_64	nv5_64	e5_64	50	PRV	0.7	0.0		;
v5_65	nv5_65	e5_65	50	PRV	0.7	0.0		;
v5_66	nv5_66	e5_66	50	PRV	0.7	0.0		;
v5_67	nv5_67	e5_67	50	PRV	0.7	0.0		;
v5_68	nv5_68	e5_68	50	PRV	0.7	0.0		;
v5_69	nv5_69	e5_69	50	PRV	0.7	0.0		;
v5_70	nv5_70	e5_70	50	PRV	0.7	0.0		;
v5_71	nv5_71	e5_71	50	PRV	0.7	0.0		;
vb5_72	nvb5_72	e_ob5_72	50	PRV	0.7	0.0		;
vf5_72	nvf5_72	e_bf5_72	50	PRV	0.7	0.0		;
vb5_73	nvb5_73	e_ob5_73	50	PRV	0.7	0.0		;
vf5_73	nvf5_73	e_bf5_73	50	PRV	0.7	0.0		;

[TAGS]

[DEMANDS]
;Junction		Demand		Pattern		Category

[STATUS]
;ID		Status/Setting
vb1_10		open
peb1_10		open
vf1_10		Closed
pef1_10		Closed
p_b1_10		Open
p_f1_10		Closed
vb1_11		open
peb1_11		open
vf1_11		Closed
pef1_11		Closed
p_b1_11		Open
p_f1_11		Closed
vb2_26		open
peb2_26		open
vf2_26		Closed
pef2_26		Closed
p_b2_26		Open
p_f2_26		Closed
vb2_27		open
peb2_27		open
vf2_27		Closed
pef2_27		Closed
p_b2_27		Open
p_f2_27		Closed
vb3_42		open
peb3_42		open
vf3_42		Closed
pef3_42		Closed
p_b3_42		Open
p_f3_42		Closed
vb3_43		open
peb3_43		open
vf3_43		Closed
pef3_43		Closed
p_b3_43		Open
p_f3_43		Closed
vb4_58		open
peb4_58		open
vf4_58		Closed
pef4_58		Closed
p_b4_58		Open
p_f4_58		Closed
vb4_59		open
peb4_59		open
vf4_59		Closed
pef4_59		Closed
p_b4_59		Open
p_f4_59		Closed
vb5_72		open
peb5_72		open
vf5_72		Closed
pef5_72		Closed
p_b5_72		Open
p_f5_72		Closed
vb5_73		open
peb5_73		open
vf5_73		Closed
pef5_73		Closed
p_b5_73		Open
p_f5_73		Closed

[PATTERNS]
;ID		Multipliers

[CURVES]
;ID		X-Value		Y-Value

[CONTROLS]

[RULES]

[ENERGY]
Global Efficiency	75.0
Global Price	0.0
Demand Charge	0.0

[EMITTERS]
;Junction		Coefficient
e1_1		0.05555555555555555
e1_2		0.05555555555555555
e1_3		0.05555555555555555
e1_4		0.05555555555555555
e1_5		0.05555555555555555
e1_6		0.05555555555555555
e1_7		0.05555555555555555
e1_8		0.05555555555555555
e1_9		0.05555555555555555
e_ob1_10		0.05555555555555555
e_bf1_10		0.05555555555555555
e_ob1_11		0.05555555555555555
e_bf1_11		0.05555555555555555
e2_12		0.05555555555555555
e2_13		0.05555555555555555
e2_14		0.05555555555555555
e2_15		0.05555555555555555
e2_16		0.05555555555555555
e2_17		0.05555555555555555
e2_18		0.05555555555555555
e2_19		0.05555555555555555
e2_20		0.05555555555555555
e2_21		0.05555555555555555
e2_22		0.05555555555555555
e2_23		0.05555555555555555
e2_24		0.05555555555555555
e2_25		0.05555555555555555
e_ob2_26		0.05555555555555555
e_bf2_26		0.05555555555555555
e_ob2_27		0.05555555555555555
e_bf2_27		0.05555555555555555
e3_28		0.05555555555555555
e3_29		0.05555555555555555
e3_30		0.05555555555555555
e3_31		0.05555555555555555
e3_32		0.05555555555555555
e3_33		0.05555555555555555
e3_34		0.05555555555555555
e3_35		0.05555555555555555
e3_36		0.05555555555555555
e3_37		0.05555555555555555
e3_38		0.05555555555555555
e3_39		0.05555555555555555
e3_40		0.05555555555555555
e3_41		0.05555555555555555
e_ob3_42		0.05555555555555555
e_bf3_42		0.05555555555555555
e_ob3_43		0.05555555555555555
e_bf3_43		0.05555555555555555
e4_44		0.05555555555555555
e4_45		0.05555555555555555
e4_46		0.05555555555555555
e4_47		0.05555555555555555
e4_48		0.05555555555555555
e4_49		0.05555555555555555
e4_50		0.05555555555555555
e4_51		0.05555555555555555
e4_52		0.05555555555555555
e4_53		0.05555555555555555
e4_54		0.05555555555555555
e4_55		0.05555555555555555
e4_56		0.05555555555555555
e4_57		0.05555555555555555
e_ob4_58		0.05555555555555555
e_bf4_58		0.05555555555555555
e_ob4_59		0.05555555555555555
e_bf4_59		0.05555555555555555
e5_60		0.05555555555555555
e5_61		0.05555555555555555
e5_62		0.05555555555555555
e5_63		0.05555555555555555
e5_64		0.05555555555555555
e5_65		0.05555555555555555
e5_66		0.05555555555555555
e5_67		0.05555555555555555
e5_68		0.05555555555555555
e5_69		0.05555555555555555
e5_70		0.05555555555555555
e5_71		0.05555555555555555
e_ob5_72		0.05555555555555555
e_bf5_72		0.05555555555555555
e_ob5_73		0.05555555555555555
e_bf5_73		0.05555555555555555

[QUALITY]
;Node		InitQual

[SOURCES]
;Node		Type		Quality		Pattern

[REACTIONS]
;Type		Pipe/Tank		Coefficient

[REACTIONS]
Order Bulk		1
Order Tank		1
Order Wall		1
Global Bulk		0
Global Wall		0
Limiting Potential		0
Roughness Correlation		0

[MIXING]
;Tank		Model

[TIMES]
Duration		0
Hydraulic Timestep		1:00
Quality Timestep		0:05
Pattern Timestep		1:00
Pattern Start 		0:00
Report Timestep		1:00
Report Start		0:00
Start ClockTime		12 am
Statistic		None

[REPORT]
Status			FULL
Summary			YES
NODES			ALL

LINKS			ALL

[OPTIONS]
Units	LPS
Headloss	D-W
Specific Gravity	1
Viscosity	1
Trials	40
Accuracy	0.001
CHECKFREQ	2
MAXCHECK	10
DAMPLIMIT	0
Unbalanced	Continue 10
Pattern	1
Demand Multiplier	1.0
Emitter Exponent	0.5
Quality	None mg/L
Diffusivity	1
Tolerance	0.01

[COORDINATES]
;Node		X-Coord		Y-Coord
CT		348980.0		4198876.0
ne1_1		348984.92566576926		4198871.86687567
e1_1		348984.92566576926		4198871.86687567
nv1_1		348984.92566576926		4198871.86687567
ne1_2		348989.3151004283		4198868.183702666
e1_2		348989.3151004283		4198868.183702666
nv1_2		348989.3151004283		4198868.183702666
ne1_3		348993.7275164207		4198864.481246035
e1_3		348993.7275164207		4198864.481246035
nv1_3		348993.7275164207		4198864.481246035
ne1_4		348998.11695107975		4198860.798073031
e1_4		348998.11695107975		4198860.798073031
nv1_4		348998.11695107975		4198860.798073031
ne1_5		349002.5293670721		4198857.095616399
e1_5		349002.5293670721		4198857.095616399
nv1_5		349002.5293670721		4198857.095616399
ne1_6		349004.72791462386		4198855.25081596
e1_6		349004.72791462386		4198855.25081596
nv1_6		349004.72791462386		4198855.25081596
ne1_7		349006.9264621756		4198853.406015519
e1_7		349006.9264621756		4198853.406015519
nv1_7		349006.9264621756		4198853.406015519
ne1_8		349009.1479910607		4198851.541931451
e1_8		349009.1479910607		4198851.541931451
nv1_8		349009.1479910607		4198851.541931451
ne1_9		349011.34653861244		4198849.697131012
e1_9		349011.34653861244		4198849.697131012
nv1_9		349011.34653861244		4198849.697131012
ne1_10		349013.5450861642		4198847.852330572
n_ob1_10		349012.5809061642		4198846.703260572
n_of1_10		349014.5092661642		4198849.001400572
e_ob1_10		349012.5809061642		4198846.703260572
nvb1_10		349012.5809061642		4198846.703260572
e_bf1_10		349014.5092661642		4198849.001400572
nvf1_10		349014.5092661642		4198849.001400572
ne1_11		349015.74363371596		4198846.007530132
n_ob1_11		349014.77945371595		4198844.858460132
n_of1_11		349016.70781371597		4198847.156600133
e_ob1_11		349014.77945371595		4198844.858460132
nvb1_11		349014.77945371595		4198844.858460132
e_bf1_11		349016.70781371597		4198847.156600133
nvf1_11		349016.70781371597		4198847.156600133
t_1		349018.0647483786		4198844.059883675
ne2_12		349019.09124793235		4198843.198548278
e2_12		349019.09124793235		4198843.198548278
nv2_12		349019.09124793235		4198843.198548278
ne2_13		349020.8684710404		4198841.707281023
e2_13		349020.8684710404		4198841.707281023
nv2_13		349020.8684710404		4198841.707281023
ne2_14		349023.06701859215		4198839.862480584
e2_14		349023.06701859215		4198839.862480584
nv2_14		349023.06701859215		4198839.862480584
ne2_15		349025.2655661439		4198838.017680144
e2_15		349025.2655661439		4198838.017680144
nv2_15		349025.2655661439		4198838.017680144
ne2_16		349027.46411369566		4198836.172879703
e2_16		349027.46411369566		4198836.172879703
nv2_16		349027.46411369566		4198836.172879703
ne2_17		349029.6856425807		4198834.308795636
e2_17		349029.6856425807		4198834.308795636
nv2_17		349029.6856425807		4198834.308795636
ne2_18		349031.88419013243		4198832.463995196
e2_18		349031.88419013243		4198832.463995196
nv2_18		349031.88419013243		4198832.463995196
ne2_19		349034.0827376842		4198830.619194756
e2_19		349034.0827376842		4198830.619194756
nv2_19		349034.0827376842		4198830.619194756
ne2_20		349036.28128523595		4198828.774394317
e2_20		349036.28128523595		4198828.774394317
nv2_20		349036.28128523595		4198828.774394317
ne2_21		349038.502814121		4198826.910310248
e2_21		349038.502814121		4198826.910310248
nv2_21		349038.502814121		4198826.910310248
ne2_22		349040.7013616728		4198825.065509808
e2_22		349040.7013616728		4198825.065509808
nv2_22		349040.7013616728		4198825.065509808
ne2_23		349042.8999092245		4198823.220709369
e2_23		349042.8999092245		4198823.220709369
nv2_23		349042.8999092245		4198823.220709369
ne2_24		349045.09845677624		4198821.375908929
e2_24		349045.09845677624		4198821.375908929
nv2_24		349045.09845677624		4198821.375908929
ne2_25		349047.3199856613		4198819.51182486
e2_25		349047.3199856613		4198819.51182486
nv2_25		349047.3199856613		4198819.51182486
ne2_26		349049.51853321306		4198817.667024421
n_ob2_26		349048.55435321305		4198816.51795442
n_of2_26		349050.4827132131		4198818.816094421
e_ob2_26		349048.55435321305		4198816.51795442
nvb2_26		349048.55435321305		4198816.51795442
e_bf2_26		349050.4827132131		4198818.816094421
nvf2_26		349050.4827132131		4198818.816094421
ne2_27		349051.7170807648		4198815.822223981
n_ob2_27		349050.7529007648		4198814.673153981
n_of2_27		349052.68126076483		4198816.971293981
e_ob2_27		349050.7529007648		4198814.673153981
nvb2_27		349050.7529007648		4198814.673153981
e_bf2_27		349052.68126076483		4198816.971293981
nvf2_27		349052.68126076483		4198816.971293981
t_2		349055.69285142457		4198812.486156287
ne3_28		349058.49657408637		4198810.133553635
e3_28		349058.49657408637		4198810.133553635
nv3_28		349058.49657408637		4198810.133553635
ne3_29		349060.2737971944		4198808.642286381
e3_29		349060.2737971944		4198808.642286381