[TITLE]
El Villar 

[JUNCTIONS]
;ID              	Elev        	Demand      	Pattern         
 A1              	175.1080    	43.610001   	                	;
 A2              	175.1080    	36.110001   	                	;
 A3              	179.0000    	18.957500   	                	;
 A4              	180.0000    	7.360000    	                	;
 A5              	171.0000    	21.110001   	                	;
 A6              	179.0000    	19.652500   	                	;
 A7              	179.0000    	0.000000    	                	;
 A8              	181.0000    	25.415001   	                	;
 A9              	181.0000    	3.195000    	                	;
 A10             	180.0000    	27.639999   	                	;
 A11             	179.0000    	18.610001   	                	;
 A12             	182.0000    	17.360001   	                	;
 A13             	187.0000    	15.560000   	                	;
 A14             	186.0000    	22.500000   	                	;
 A15             	179.0000    	55.000000   	                	;
 A16             	188.0000    	8.750000    	                	;
 A17             	187.0000    	17.219999   	                	;
 A18             	190.0000    	26.110001   	                	;
 A19             	189.0000    	0.000000    	                	;
 A20             	185.0000    	23.055000   	                	;
 A21             	184.0000    	0.000000    	                	;
 A22             	187.0000    	0.000000    	                	;
 A23             	195.0000    	21.530001   	                	;
 A24             	195.0000    	20.969999   	                	;
 A25             	193.0000    	8.615000    	                	;
 A26             	187.0000    	13.842500   	                	;
 A27             	190.0000    	20.139999   	                	;
 A28             	189.0000    	30.000000   	                	;
 A29             	194.0000    	15.835000   	                	;
 A30             	183.0000    	0.000000    	                	;
 A31             	168.0000    	25.830000   	                	;
 A32             	194.0670    	16.389999   	                	;
 A33             	190.0000    	28.330000   	                	;
 A34             	189.0000    	43.889999   	                	;
 A35             	179.0000    	49.720001   	                	;
 A36             	136.0000    	0.000000    	                	;
 A37             	136.0000    	0.000000    	                	;
 A38             	136.0000    	0.000000    	                	;
 A39             	154.0000    	51.805000   	                	;
 A40             	191.0000    	10.000000   	                	;
 A41             	189.0000    	25.415001   	                	;
 A42             	187.0000    	7.780000    	                	;
 A43             	191.0000    	37.779999   	                	;
 A44             	193.0000    	66.110001   	                	;
 A45             	183.0000    	34.720001   	                	;
 A46             	184.0000    	0.000000    	                	;
 n90             	194.0000    	0.000000    	                	;
 1               	187.0000    	0.000000    	                	;
 2               	187.0000    	0.000000    	                	;
 3               	168.0000    	0.000000    	                	;
 4               	193.0000    	0.000000    	                	;
 5               	195.0000    	0.000000    	                	;
 6               	193.0000    	0.000000    	                	;
 7               	144.0000    	0.000000    	                	;
 8               	146.0000    	0.000000    	                	;
 9               	119.0000    	0.000000    	                	;
 10              	107.0000    	0.000000    	                	;
 11              	102.0000    	0.000000    	                	;
 12              	95.0000     	0.000000    	                	;
 13              	88.0000     	0.000000    	                	;
 14              	147.0000    	0.000000    	                	;
 15              	144.0000    	0.000000    	                	;
 16              	147.0000    	0.000000    	                	;
 17              	182.0000    	0.000000    	                	;
 18              	177.0000    	0.000000    	                	;
 19              	180.0000    	0.000000    	                	;
 20              	171.0000    	0.000000    	                	;
 21              	171.0000    	0.000000    	                	;
 22              	159.0000    	0.000000    	                	;
 23              	188.0000    	0.000000    	                	;
 24              	189.0000    	0.000000    	                	;
 25              	148.0000    	0.000000    	                	;
 26              	157.0000    	0.000000    	                	;
 27              	175.0000    	0.000000    	                	;
 28              	195.0000    	0.000000    	                	;
 29              	192.0000    	0.000000    	                	;
 30              	191.0000    	0.000000    	                	;
 31              	179.0000    	0.000000    	                	;
 32              	175.1080    	0.000000    	                	;
 33              	194.0000    	0.000000    	                	;
 34              	195.0000    	0.000000    	                	;
 35              	171.0000    	0.000000    	                	;
 36              	190.0000    	0.000000    	                	;
 37              	180.0000    	0.000000    	                	;
 38              	179.0000    	0.000000    	                	;
 39              	183.0000    	0.000000    	                	;
 40              	184.0000    	0.000000    	                	;
 41              	163.0000    	0.000000    	                	;
 42              	191.0000    	0.000000    	                	;
 43              	187.0000    	0.000000    	                	;
 44              	191.0000    	0.000000    	                	;
 45              	136.0000    	0.000000    	                	;
 46              	154.0000    	0.000000    	                	;
 47              	189.0000    	0.000000    	                	;
 48              	188.0000    	0.000000    	                	;
 49              	179.0000    	0.000000    	                	;
 50              	189.0000    	0.000000    	                	;
 51              	181.0000    	0.000000    	                	;
 52              	191.0000    	0.000000    	                	;
 53              	190.0000    	0.000000    	                	;
 54              	189.0000    	0.000000    	                	;
 55              	187.0000    	0.000000    	                	;
 56              	147.0000    	0.000000    	                	;
 57              	144.0000    	0.000000    	                	;
 58              	195.0000    	0.000000    	                	;
 59              	195.0000    	0.000000    	                	;
 60              	193.0000    	0.000000    	                	;
 61              	194.0000    	0.000000    	                	;
 62              	190.0000    	0.000000    	                	;
 63              	183.0000    	0.000000    	                	;
 64              	168.0000    	0.000000    	                	;
 65              	179.0000    	0.000000    	                	;
 66              	180.0000    	0.000000    	                	;
 67              	181.0000    	0.000000    	                	;
 68              	181.0000    	0.000000    	                	;
 69              	179.0000    	0.000000    	                	;
 70              	179.0000    	0.000000    	                	;
 71              	182.0000    	0.000000    	                	;
 72              	188.0000    	0.000000    	                	;
 73              	187.0000    	0.000000    	                	;
 74              	187.0000    	0.000000    	                	;
 75              	190.0000    	0.000000    	                	;
 76              	189.0000    	0.000000    	                	;
 77              	185.0000    	0.000000    	                	;
 78              	184.0000    	0.000000    	                	;
 79              	187.0000    	0.000000    	                	;
 80              	187.0000    	0.000000    	                	;
 81              	186.0000    	0.000000    	                	;
 82              	194.0670    	0.000000    	                	;
 83              	191.0000    	0.000000    	                	;
 84              	193.0000    	0.000000    	                	;
 85              	175.1080    	0.000000    	                	;
 86              	175.1080    	0.000000    	                	;
 87              	179.0000    	0.000000    	                	;
 88              	154.0000    	0.000000    	                	;
 89              	180.0000    	0.000000    	                	;

[RESERVOIRS]
;ID              	Head        	Pattern         
 embalse         	255.5000    	                	;

[TANKS]
;ID              	Elevation   	InitLevel   	MinLevel    	MaxLevel    	Diameter    	MinVol      	VolCurve        	Overflow

[PIPES]
;ID              	Node1           	Node2           	Length      	Diameter    	Roughness   	MinorLoss   	Status
 1               	58              	4               	745.8600    	350.0000    	0.0250      	4.4740      	Open  	;
 2               	4               	6               	84.3000     	350.0000    	0.0250      	14.9447     	Open  	;
 3               	37              	35              	198.7900    	184.6000    	0.0025      	14.7163     	Open  	;
 4               	70              	17              	669.8700    	700.0000    	0.0250      	14.4430     	Open  	;
 5               	17              	72              	278.0100    	700.0000    	0.0250      	12.6645     	Open  	;
 6               	72              	73              	424.1800    	700.0000    	0.0250      	14.8759     	Open  	;
 7               	74              	75              	678.8800    	500.0000    	0.0250      	14.8621     	Open  	;
 8               	75              	76              	841.8900    	500.0000    	0.0250      	14.8343     	Open  	;
 9               	24              	77              	525.9300    	300.0000    	0.0250      	8.7034      	Open  	;
 10              	23              	78              	374.0700    	300.0000    	0.0250      	13.7384     	Open  	;
 11              	78              	79              	135.9700    	300.0000    	0.0250      	15.0000     	Open  	;
 12              	28              	29              	726.8900    	450.0000    	0.0250      	11.7479     	Open  	;
 13              	29              	33              	459.3400    	500.0000    	0.0250      	11.0524     	Open  	;
 14              	33              	34              	179.3300    	400.0000    	0.0250      	3.4339      	Open  	;
 15              	34              	5               	207.5300    	400.0000    	0.0250      	6.5594      	Open  	;
 16              	61              	36              	378.7100    	350.0000    	0.0250      	6.5607      	Open  	;
 17              	36              	64              	497.0000    	300.0000    	0.0250      	14.8049     	Open  	;
 18              	50              	49              	692.9600    	190.2000    	0.0025      	15.0000     	Open  	;
 19              	41              	50              	673.9700    	300.0000    	0.0250      	14.8527     	Open  	;
 20              	42              	83              	42.2300     	400.0000    	0.0250      	14.7984     	Open  	;
 21              	42              	44              	420.6600    	1000.0000   	0.0250      	14.9975     	Open  	;
 22              	48              	47              	183.5600    	147.6000    	0.0025      	14.8882     	Open  	;
 23              	41              	46              	403.1100    	230.8000    	0.0025      	14.9936     	Open  	;
 24              	42              	40              	490.4100    	1000.0000   	0.0250      	14.9646     	Open  	;
 25              	40              	43              	174.8700    	1000.0000   	0.0250      	15.0000     	Open  	;
 26              	56              	57              	1775.8800   	184.6000    	0.0025      	14.9005     	Open  	;
 27              	56              	57              	1775.8800   	184.6000    	0.0025      	15.0000     	Open  	;
 28              	83              	84              	837.4900    	350.0000    	0.0250      	14.8874     	Open  	;
 29              	36              	62              	25.0800     	237.6000    	0.0025      	10.8392     	Open  	;
 30              	36              	63              	382.3100    	237.6000    	0.0025      	6.5694      	Open  	;
 31              	28              	82              	178.6800    	184.6000    	0.0025      	14.8098     	Open  	;
 32              	28              	58              	45.6500     	400.0000    	0.0250      	14.7053     	Open  	;
 33              	4               	60              	74.3300     	184.6000    	0.0025      	14.8410     	Open  	;
 34              	54              	33              	385.9000    	500.0000    	0.0250      	3.8731      	Open  	;
 35              	54              	53              	547.9200    	237.6000    	0.0025      	14.9634     	Open  	;
 36              	53              	52              	274.7700    	184.6000    	0.0025      	12.2066     	Open  	;
 37              	41              	48              	430.9100    	600.0000    	0.0250      	5.1910      	Open  	;
 38              	48              	54              	668.0000    	600.0000    	0.0250      	3.3544      	Open  	;
 39              	44              	80              	306.8900    	237.6000    	0.0025      	14.6511     	Open  	;
 40              	80              	81              	337.2300    	184.6000    	0.0025      	15.0000     	Open  	;
 41              	51              	70              	497.9400    	700.0000    	0.0250      	14.9286     	Open  	;
 42              	51              	69              	705.7600    	600.0000    	0.0250      	14.9377     	Open  	;
 43              	69              	68              	353.5500    	600.0000    	0.0250      	14.9758     	Open  	;
 44              	68              	67              	962.8700    	400.0000    	0.0250      	14.0414     	Open  	;
 45              	67              	32              	834.8400    	350.0000    	0.0250      	8.5246      	Open  	;
 46              	68              	66              	474.4700    	450.0000    	0.0250      	14.8554     	Open  	;
 47              	66              	65              	422.5000    	400.0000    	0.0250      	14.6868     	Open  	;
 48              	65              	38              	207.3900    	400.0000    	0.0250      	14.8744     	Open  	;
 49              	37              	31              	1145.5600   	350.0000    	0.0250      	14.9127     	Open  	;
 50              	55              	43              	68.0100     	700.0000    	0.0250      	8.9060      	Open  	;
 51              	17              	71              	130.4600    	237.6000    	0.0025      	14.9797     	Open  	;
 52              	24              	23              	184.3900    	350.0000    	0.0250      	14.6417     	Open  	;
 53              	73              	74              	2.6200      	500.0000    	0.0250      	14.9185     	Open  	;
 54              	embalse         	43              	8.5900      	1100.0000   	0.0250      	15.0000     	Open  	;
 55              	5               	61              	82.6200     	350.0000    	0.0250      	1.2817      	Open  	;
 56              	6               	59              	92.3900     	237.6000    	0.0025      	7.2305      	Open  	;
 57              	38              	37              	676.3900    	400.0000    	0.0250      	14.7969     	Open  	;
 58              	76              	24              	26.9300     	500.0000    	0.0250      	14.6393     	Open  	;
 59              	embalse         	1               	52.1700     	1100.0000   	0.0250      	14.6493     	Open  	;
 60              	1               	2               	5.7000      	1100.0000   	0.0250      	14.8014     	Open  	;
 61              	2               	3               	280.8900    	1100.0000   	0.0250      	14.8814     	Open  	;
 62              	7               	8               	259.3000    	1100.0000   	0.0250      	14.1155     	Open  	;
 63              	8               	9               	747.7000    	1100.0000   	0.0250      	14.8189     	Open  	;
 64              	9               	10              	429.6800    	1100.0000   	0.0250      	7.5102      	Open  	;
 65              	10              	11              	209.2700    	1100.0000   	0.0250      	14.8700     	Open  	;
 66              	11              	12              	628.7000    	1100.0000   	0.0250      	11.0702     	Open  	;
 67              	12              	13              	326.2100    	1100.0000   	0.0250      	14.9570     	Open  	;
 68              	7               	45              	468.9200    	500.0000    	0.0250      	14.7742     	Open  	;
 69              	16              	14              	2.0100      	184.6000    	0.0025      	14.9164     	Open  	;
 70              	16              	56              	4.7300      	184.6000    	0.0025      	9.5130      	Open  	;
 71              	14              	15              	1776.8200   	184.6000    	0.0025      	13.9487     	Open  	;
 72              	84              	18              	637.4100    	300.0000    	0.0250      	14.4442     	Open  	;
 73              	18              	19              	509.8000    	300.0000    	0.0250      	14.9922     	Open  	;
 74              	19              	39              	580.9100    	300.0000    	0.0250      	9.4513      	Open  	;
 75              	40              	20              	892.9300    	300.0000    	0.0250      	15.0000     	Open  	;
 76              	20              	21              	261.8900    	300.0000    	0.0250      	14.9025     	Open  	;
 77              	21              	16              	1235.5100   	300.0000    	0.0250      	14.9122     	Open  	;
 78              	3               	22              	1003.1400   	1100.0000   	0.0250      	14.9055     	Open  	;
 79              	22              	25              	226.3700    	1100.0000   	0.0250      	14.8661     	Open  	;
 80              	25              	26              	481.2000    	1100.0000   	0.0250      	12.4242     	Open  	;
 81              	26              	7               	513.5600    	1100.0000   	0.0250      	14.9303     	Open  	;
 82              	55              	27              	280.8700    	700.0000    	0.0250      	5.8149      	Open  	;
 83              	27              	41              	260.0300    	700.0000    	0.0250      	14.9976     	Open  	;
 84              	44              	30              	40.2700     	1000.0000   	0.0250      	14.8343     	Open  	;
 85              	30              	51              	980.1200    	900.0000    	0.0250      	14.9622     	Open  	;

[PUMPS]
;ID              	Node1           	Node2           	Parameters

[VALVES]
;ID              	Node1           	Node2           	Diameter    	Type	Setting     	MinorLoss   
 86              	85              	A1              	350.0000    	GPV 	8           	11.6816     	;
 87              	86              	A2              	350.0000    	GPV 	8           	12.0169     	;
 88              	31              	A3              	350.0000    	GPV 	8           	12.5509     	;
 89              	35              	A5              	184.6000    	GPV 	6           	14.9726     	;
 90              	89              	A4              	400.0000    	GPV 	6           	8.8023      	;
 91              	38              	A6              	400.0000    	GPV 	6           	14.9633     	;
 92              	65              	A7              	400.0000    	GPV 	6           	14.8693     	;
 93              	66              	A10             	450.0000    	GPV 	6           	14.8592     	;
 94              	67              	A8              	400.0000    	GPV 	8           	15.0000     	;
 95              	68              	A9              	600.0000    	GPV 	8           	14.8314     	;
 96              	87              	A11             	600.0000    	GPV 	8           	15.0000     	;
 97              	70              	A15             	700.0000    	GPV 	8           	12.0376     	;
 98              	71              	A12             	237.6000    	GPV 	8           	14.8841     	;
 99              	72              	A16             	700.0000    	GPV 	8           	6.6703      	;
 100             	73              	A26             	700.0000    	GPV 	8           	14.9669     	;
 101             	74              	A17             	700.0000    	GPV 	8           	14.9953     	;
 102             	75              	A18             	500.0000    	GPV 	6           	14.8867     	;
 103             	76              	A19             	500.0000    	GPV 	6           	14.9781     	;
 104             	77              	A20             	300.0000    	GPV 	8           	11.8500     	;
 105             	78              	A21             	300.0000    	GPV 	6           	4.0113      	;
 106             	79              	A22             	300.0000    	GPV 	8           	14.7553     	;
 107             	80              	A13             	237.6000    	GPV 	6           	14.9649     	;
 108             	81              	A14             	184.6000    	GPV 	6           	14.8248     	;
 109             	83              	A43             	400.0000    	GPV 	8           	9.6080      	;
 110             	84              	A44             	350.0000    	GPV 	8           	15.0000     	;
 111             	39              	A45             	300.0000    	GPV 	8           	14.4755     	;
 112             	40              	A46             	1000.0000   	GPV 	8           	1.8416      	;
 113             	43              	A42             	1100.0000   	GPV 	6           	14.9972     	;
 114             	45              	A36             	500.0000    	GPV 	8           	12.1565     	;
 115             	45              	A37             	500.0000    	GPV 	8           	14.7658     	;
 116             	45              	A38             	500.0000    	GPV 	8           	13.2361     	;
 117             	88              	A39             	230.8000    	GPV 	8           	14.8624     	;
 118             	47              	A41             	147.6000    	GPV 	6           	5.1035      	;
 119             	50              	A34             	300.0000    	GPV 	8           	14.8599     	;
 120             	49              	A35             	190.2000    	GPV 	8           	14.9700     	;
 121             	54              	A28             	600.0000    	GPV 	6           	7.5257      	;
 122             	53              	A27             	237.6000    	GPV 	8           	14.9063     	;
 123             	52              	A40             	184.6000    	GPV 	8           	14.1624     	;
 124             	33              	A29             	500.0000    	GPV 	6           	14.9299     	;
 125             	82              	A32             	184.6000    	GPV 	6           	14.9145     	;
 126             	58              	A24             	400.0000    	GPV 	6           	14.9001     	;
 127             	59              	A23             	237.6000    	GPV 	6           	6.5101      	;
 128             	60              	A25             	184.6000    	GPV 	6           	14.8318     	;
 129             	61              	n90             	350.0000    	GPV 	4           	5.3459      	;
 130             	62              	A33             	237.6000    	GPV 	6           	14.8623     	;
 131             	63              	A30             	237.6000    	GPV 	8           	6.1624      	;
 132             	64              	A31             	300.0000    	GPV 	8           	14.5897     	;
 133             	32              	85              	350.0000    	PRV 	40.0000     	14.8901     	;
 134             	32              	86              	350.0000    	PRV 	50.0000     	14.9914     	;
 135             	69              	87              	600.0000    	PRV 	30.0000     	14.6770     	;
 136             	46              	88              	230.8000    	PRV 	78.0000     	14.4783     	;
 137             	37              	89              	400.0000    	PRV 	0.0000      	14.9263     	;

[TAGS]

[DEMANDS]
;Junction        	Demand      	Pattern         	Category

[STATUS]
;ID              	Status/Setting
 137             	Open

[PATTERNS]
;ID              	Multipliers

[CURVES]
;ID              	X-Value     	Y-Value
;PUMP: 
 8               	25.0000     	0.3000      
 8               	27.8000     	0.5122      
 8               	41.7000     	1.5700      
 8               	55.6000     	2.6300      
 8               	83.3000     	4.7600      
 8               	111.1000    	6.8800      
 8               	138.9000    	9.0000      
;PUMP: 
 6               	19.4000     	0.3000      
 6               	22.2000     	0.6000      
 6               	25.0000     	0.8000      
 6               	27.8000     	1.1000      
 6               	55.6000     	3.7000      
 6               	83.3000     	6.4000      
 6               	111.1000    	9.0000      
;PUMP: 
 4               	4.1700      	0.1000      
 4               	5.5600      	0.2000      
 4               	6.9400      	0.3000      
 4               	8.3300      	0.4000      
 4               	9.7200      	0.5000      
 4               	11.1100     	0.6000      

[CONTROLS]


[RULES]






























[ENERGY]
 Global Efficiency  	75.0000
 Global Price       	0
 Demand Charge      	0.0000

[EMITTERS]
;Junction        	Coefficient

[QUALITY]
;Node            	InitQual

[SOURCES]
;Node            	Type        	Quality     	Pattern

[REACTIONS]
;Type     	Pipe/Tank       	Coefficient


[REACTIONS]
 Order Bulk            	1.00
 Order Tank            	1.00
 Order Wall            	1
 Global Bulk           	0.000000
 Global Wall           	0.000000
 Limiting Potential    	0
 Roughness Correlation 	0

[MIXING]
;Tank            	Model

[TIMES]
 Duration           	0:00 
 Hydraulic Timestep 	1:00 
 Quality Timestep   	0:05 
 Pattern Timestep   	1:00 
 Pattern Start      	0:00 
 Report Timestep    	1:00 
 Report Start       	0:00 
 Start ClockTime    	0:00:00
 Statistic          	NONE

[REPORT]
 Status             	No
 Summary            	No
 Page               	0

[OPTIONS]
 Units              	LPS
 Headloss           	D-W
 Specific Gravity   	1.000000
 Viscosity          	1.000000
 Trials             	40
 Accuracy           	0.00100000
 CHECKFREQ          	2
 MAXCHECK           	10
 DAMPLIMIT          	0.00000000
 Unbalanced         	Continue 10
 Pattern            	1
 Demand Multiplier  	1.0000
 Emitter Exponent   	0.5000
 Quality            	NONE mg/L
 Diffusivity        	1.000000
 Tolerance          	0.01000000

[COORDINATES]
;Node            	X-Coord           	Y-Coord
A1              	316210.240        	4168900.360       
A2              	316209.890        	4168899.820       
A3              	316368.000        	4170430.000       
A4              	317465.770        	4170100.080       
A5              	317588.000        	4170250.000       
A6              	317831.050        	4169523.000       
A7              	317916.410        	4169340.000       
A8              	317017.460        	4168684.350       
A9              	317952.880        	4168459.680       
A10             	318024.810        	4168929.390       
A11             	318288.940        	4168349.420       
A12             	320071.390        	4168738.850       
A13             	319234.010        	4167092.970       
A14             	319577.660        	4167015.760       
A15             	319482.390        	4168327.080       
A16             	320358.350        	4168615.450       
A17             	320753.570        	4168768.780       
A18             	320919.020        	4168089.250       
A19             	321749.070        	4168107.900       
A20             	321864.880        	4168646.330       
A21             	322070.930        	4167648.790       
A22             	322110.910        	4167519.200       
A23             	321559.880        	4165940.070       
A24             	320829.640        	4165570.260       
A25             	321357.790        	4166000.440       
A26             	320751.100        	4168771.540       
A27             	319983.940        	4166217.280       
A28             	319842.670        	4165686.590       
A29             	319686.970        	4165330.000       
A30             	319823.180        	4164629.980       
A31             	319607.010        	4164059.970       
A32             	320906.270        	4165359.420       
A33             	319430.880        	4164519.970       
A34             	318715.490        	4164935.310       
A35             	318121.000        	4164550.000       
A36             	316420.280        	4165102.870       
A37             	316419.280        	4165102.870       
A38             	316421.280        	4165102.870       
A39             	318330.000        	4165590.000       
A40             	320079.000        	4166470.000       
A41             	319122.000        	4165870.000       
A42             	318695.620        	4166188.270       
A43             	318824.350        	4166812.330       
A44             	318042.710        	4167122.910       
A45             	316450.970        	4167826.900       
A46             	318736.060        	4166359.230       
n90             	319517.190        	4164899.990       
1               	318642.760        	4166145.160       
2               	318637.120        	4166144.310       
3               	318379.750        	4166256.830       
4               	321383.000        	4165930.000       
5               	319529.000        	4164981.750       
6               	321467.000        	4165931.500       
7               	316272.530        	4165548.010       
8               	316031.040        	4165453.550       